$DATA1 SOURCE='PrimeSim HSPICE' VERSION='U-2023.03-SP2 linux6' PARAM_COUNT=0
.TITLE '*----------------------------------------------------------------------'
 pwr              tpdr             tpdf             temper          
 alter#          
 -1.291e-06        5.155e-11        3.274e-11         25.0000       
1               
