$DATA1 SOURCE='PrimeSim HSPICE' VERSION='U-2023.03-SP2 linux6' PARAM_COUNT=0
.TITLE '*----------------------------------------------------------------------'
 pwr              tpdr             tpdf             temper          
 alter#          
 -1.281e-03        1.111e-10        9.477e-11         25.0000       
1               
