$DATA1 SOURCE='PrimeSim HSPICE' VERSION='U-2023.03-SP2 linux6' PARAM_COUNT=2
.TITLE '*----------------------------------------------------------------------'
 index            p1               bestratio        tpdr            
                  tpdf             tpd              diff            
                  temper           alter#          
 5                 8.800e-07          4.0000         1.155e-10      
                   9.470e-11        1.051e-10        2.085e-11      
                    25.0000        1               
