$DATA1 SOURCE='PrimeSim HSPICE' VERSION='U-2023.03-SP2 linux6' PARAM_COUNT=0
.TITLE '*----------------------------------------------------------------------'
 pwr              tpdr             tpdf             temper          
 alter#          
 -8.393e-04        1.169e-10        7.666e-11         25.0000       
1               
